Version 4
SHEET 1 1248 680
WIRE -1264 -256 -1264 -288
WIRE 560 -256 560 -288
WIRE -1264 -128 -1264 -176
WIRE 560 -128 560 -176
FLAG 560 -128 0
FLAG 560 -288 24V
FLAG -1264 -128 0
FLAG -1264 -288 5V
SYMBOL res -864 -288 R0
SYMATTR InstName R1
SYMBOL cap -704 -272 R0
SYMATTR InstName C1
SYMBOL diode -544 -256 R0
SYMATTR InstName D1
SYMBOL Optos\\PC817A -240 -240 R0
SYMATTR InstName U1
SYMBOL voltage 560 -272 R0
WINDOW 3 23 93 Left 2
WINDOW 123 0 0 Left 2
WINDOW 39 -29 126 VLeft 2
SYMATTR Value 24V
SYMATTR InstName V1
SYMBOL voltage -1264 -272 R0
WINDOW 3 23 93 Left 2
WINDOW 123 0 0 Left 2
WINDOW 39 -29 126 VLeft 2
SYMATTR Value 5V
SYMATTR InstName V2
SYMBOL npn -624 -560 R0
SYMATTR InstName Q1
SYMBOL npn 112 -640 R0
SYMATTR InstName Q2
SYMBOL pnp 112 -352 R0
SYMATTR InstName Q3
